test/resources/V1_2/overloadManagementSystemRoundTripRef.xml
<?xml version="1.0" encoding="UTF-8"?>
<iidm:network xmlns:iidm="http://www.powsybl.org/schema/iidm/1_2" id="fictitious" caseDate="2024-01-02T15:00:00+01:00" forecastDistance="0" sourceFormat="test">
    <iidm:substation id="S1">
        <iidm:voltageLevel id="S1_400" nominalV="400" topologyKind="NODE_BREAKER">
            <iidm:nodeBreakerTopology>
                <iidm:busbarSection id="S1_400_BBS" node="0"/>
                <iidm:switch id="S1_400_LINE_1_DISCONNECTOR" kind="DISCONNECTOR" retained="false" open="true" node1="0" node2="1"/>
                <iidm:switch id="S1_400_LINE_1_BREAKER" kind="BREAKER" retained="false" open="true" node1="1" node2="11"/>
                <iidm:switch id="S1_400_LINE_2_DISCONNECTOR" kind="DISCONNECTOR" retained="false" open="true" node1="0" node2="2"/>
                <iidm:switch id="S1_400_LINE_2_BREAKER" kind="BREAKER" retained="false" open="true" node1="2" node2="12"/>
                <iidm:switch id="S1_400_BBS_2WT_DISCONNECTOR" kind="DISCONNECTOR" retained="false" open="true" node1="0" node2="13"/>
                <iidm:switch id="S1_400_2WT_BREAKER" kind="BREAKER" retained="false" open="true" node1="13" node2="23"/>
                <iidm:switch id="S1_400_BBS_3WT_DISCONNECTOR" kind="DISCONNECTOR" retained="false" open="true" node1="0" node2="14"/>
                <iidm:switch id="S1_400_3WT_BREAKER" kind="BREAKER" retained="false" open="true" node1="14" node2="24"/>
            </iidm:nodeBreakerTopology>
        </iidm:voltageLevel>
        <iidm:voltageLevel id="S1_225" nominalV="225" topologyKind="NODE_BREAKER">
            <iidm:nodeBreakerTopology>
                <iidm:busbarSection id="S1_225_BBS" node="0"/>
                <iidm:switch id="S1_225_BBS_2WT_DISCONNECTOR" kind="DISCONNECTOR" retained="false" open="true" node1="0" node2="13"/>
                <iidm:switch id="S1_225_2WT_BREAKER" kind="BREAKER" retained="false" open="true" node1="13" node2="23"/>
                <iidm:switch id="S1_225_BBS_3WT_DISCONNECTOR" kind="DISCONNECTOR" retained="false" open="true" node1="0" node2="14"/>
                <iidm:switch id="S1_225_3WT_BREAKER" kind="BREAKER" retained="false" open="true" node1="14" node2="24"/>
            </iidm:nodeBreakerTopology>
        </iidm:voltageLevel>
        <iidm:voltageLevel id="S1_90" nominalV="90" topologyKind="NODE_BREAKER">
            <iidm:nodeBreakerTopology>
                <iidm:busbarSection id="S1_90_BBS" node="0"/>
                <iidm:switch id="S1_90_BBS_3WT_DISCONNECTOR" kind="DISCONNECTOR" retained="false" open="true" node1="0" node2="14"/>
                <iidm:switch id="S1_90_3WT_BREAKER" kind="BREAKER" retained="false" open="true" node1="14" node2="24"/>
            </iidm:nodeBreakerTopology>
        </iidm:voltageLevel>
        <iidm:twoWindingsTransformer id="2WT" r="2" x="25" g="0" b="3.1999999999999999e-05" ratedU1="400" ratedU2="225" node1="23" voltageLevelId1="S1_400" node2="23" voltageLevelId2="S1_225"/>
        <iidm:threeWindingsTransformer id="3WT" r1="0.001" x1="9.9999999999999995e-07" g1="0" b1="0" ratedU1="400" r2="0.10000000000000001" x2="1.0000000000000001e-05" g2="0" b2="0" ratedU2="225" r3="0.01" x3="0.0001" g3="0" b3="0" ratedU3="90" ratedU0="400" node1="24" voltageLevelId1="S1_400" node2="24" voltageLevelId2="S1_225" node3="24" voltageLevelId3="S1_90"/>
    </iidm:substation>
    <iidm:substation id="S2">
        <iidm:voltageLevel id="S2_400" nominalV="400" topologyKind="NODE_BREAKER">
            <iidm:nodeBreakerTopology>
                <iidm:busbarSection id="S2_400_BBS" node="0"/>
                <iidm:switch id="S2_400_LINE_1_DISCONNECTOR" kind="DISCONNECTOR" retained="false" open="true" node1="0" node2="1"/>
                <iidm:switch id="S2_400_LINE_1_BREAKER" kind="BREAKER" retained="false" open="true" node1="1" node2="11"/>
                <iidm:switch id="S2_400_LINE_2_DISCONNECTOR" kind="DISCONNECTOR" retained="false" open="true" node1="0" node2="2"/>
                <iidm:switch id="S2_400_LINE_2_BREAKER" kind="BREAKER" retained="false" open="true" node1="2" node2="12"/>
            </iidm:nodeBreakerTopology>
        </iidm:voltageLevel>
    </iidm:substation>
    <iidm:line id="LINE_1" r="0.01" x="50" g1="0" b1="0" g2="0" b2="0" node1="11" voltageLevelId1="S1_400" node2="11" voltageLevelId2="S2_400"/>
    <iidm:line id="LINE_2" r="0.01" x="50" g1="0" b1="0" g2="0" b2="0" node1="12" voltageLevelId1="S1_400" node2="12" voltageLevelId2="S2_400"/>
</iidm:network>
